Version 4
SHEET 1 996 680
WIRE 640 112 608 112
WIRE 672 112 640 112
WIRE 528 224 528 112
WIRE 496 240 336 240
WIRE 608 256 560 256
WIRE 496 272 448 272
WIRE 752 288 752 112
WIRE 752 288 528 288
WIRE 352 320 336 320
WIRE 448 320 448 272
WIRE 448 320 432 320
WIRE 496 320 448 320
WIRE 608 320 608 256
WIRE 608 320 576 320
WIRE 256 480 64 480
WIRE 336 496 320 496
WIRE 256 512 176 512
WIRE 80 560 64 560
WIRE 176 560 176 512
WIRE 176 560 160 560
WIRE 224 560 176 560
WIRE 336 560 336 496
WIRE 336 560 304 560
FLAG 640 112 0
FLAG 336 320 0
FLAG 256 240 0
SYMBOL UniversalOpamp2 528 256 R0
SYMATTR InstName U1
SYMBOL UniversalOpamp2 288 496 R0
SYMATTR InstName U2
SYMBOL voltage 512 112 R270
WINDOW 0 32 56 VTop 2
WINDOW 3 55 93 VBottom 2
SYMATTR InstName V2
SYMATTR Value 10
SYMBOL res 176 544 R90
WINDOW 0 54 86 VBottom 2
WINDOW 3 32 56 VTop 2
SYMATTR InstName R1
SYMATTR Value 1
SYMBOL res 320 544 R90
WINDOW 0 53 91 VBottom 2
WINDOW 3 32 56 VTop 2
SYMATTR InstName R2
SYMATTR Value 2
SYMBOL res 480 336 R270
WINDOW 0 -22 27 VTop 2
WINDOW 3 0 56 VBottom 2
SYMATTR InstName R3
SYMATTR Value 4k
SYMBOL res 448 304 R90
WINDOW 0 0 56 VBottom 2
WINDOW 3 32 56 VTop 2
SYMATTR InstName R4
SYMATTR Value 1k
SYMBOL voltage 656 112 R270
WINDOW 0 32 56 VTop 2
WINDOW 3 55 93 VBottom 2
SYMATTR InstName V1
SYMATTR Value 10
SYMBOL voltage 560 512 R270
WINDOW 0 32 56 VTop 2
WINDOW 3 55 93 VBottom 2
SYMATTR InstName V4
SYMBOL voltage 352 240 R90
WINDOW 0 -32 56 VBottom 2
WINDOW 3 32 56 VTop 2
SYMATTR InstName V5
SYMATTR Value -6
TEXT 176 48 Left 2 !.dc V5 -10 10 0.1
