Version 4
SHEET 1 1416 1096
WIRE -640 -128 -1264 -128
WIRE -1104 -48 -1152 -48
WIRE -1008 -48 -1040 -48
WIRE -768 -32 -832 -32
WIRE -640 -32 -640 -128
WIRE -640 -32 -688 -32
WIRE -976 16 -976 -32
WIRE -976 16 -1072 16
WIRE -816 16 -976 16
WIRE -1264 32 -1264 -128
WIRE -1152 32 -1152 -48
WIRE -1152 32 -1184 32
WIRE -1104 32 -1152 32
WIRE -1008 48 -1008 -48
WIRE -1008 48 -1040 48
WIRE -960 48 -1008 48
WIRE -832 48 -832 -32
WIRE -832 48 -880 48
WIRE -768 48 -832 48
WIRE -640 48 -640 -32
WIRE -704 64 -640 48
WIRE -768 80 -784 80
WIRE -1248 112 -1104 64
WIRE -1344 144 -1248 112
WIRE -1344 144 -1344 128
WIRE -1344 160 -1344 144
WIRE -1248 176 -1248 112
WIRE -784 176 -784 80
WIRE -784 176 -1248 176
WIRE -816 192 -816 16
WIRE -736 192 -736 96
WIRE -736 192 -816 192
WIRE 528 256 528 224
WIRE 528 288 528 256
WIRE -816 320 -816 192
WIRE -1072 336 -1008 48
WIRE -976 336 -1008 336
WIRE -848 336 -976 336
WIRE 976 336 816 336
WIRE -288 352 -784 352
WIRE -976 368 -976 336
WIRE -848 368 -896 368
WIRE -32 384 -288 384
WIRE 352 400 32 400
WIRE -32 416 -160 416
WIRE 768 416 752 416
WIRE -896 432 -896 368
WIRE -288 448 -288 384
WIRE 352 448 352 400
WIRE 400 448 352 448
WIRE 704 448 656 448
WIRE 752 448 752 416
WIRE 752 448 704 448
WIRE -160 464 -160 416
WIRE -112 464 -160 464
WIRE 16 464 -48 464
WIRE 32 464 16 464
WIRE -896 480 -896 432
WIRE 976 528 976 336
WIRE 992 528 976 528
WIRE 1168 528 1072 528
WIRE 1296 528 1168 528
WIRE -112 544 -128 544
WIRE -32 544 -112 544
WIRE 64 544 32 544
WIRE 176 544 128 544
WIRE 208 544 176 544
WIRE 400 544 352 544
WIRE 704 544 656 544
WIRE 784 544 704 544
WIRE -1248 560 -1248 176
WIRE -976 560 -976 448
WIRE -976 560 -1248 560
WIRE 976 576 976 528
WIRE 976 576 880 576
WIRE 1168 576 1168 528
WIRE 784 656 784 544
WIRE 832 656 784 656
WIRE 1168 672 1168 640
WIRE -112 688 -112 544
WIRE -80 688 -112 688
WIRE 176 704 -16 704
WIRE 352 704 352 544
WIRE 352 704 240 704
WIRE -288 720 -288 512
WIRE -80 720 -288 720
WIRE 496 816 448 816
WIRE 624 816 576 816
WIRE 672 816 624 816
FLAG -1344 -32 0
FLAG -1344 240 0
FLAG -976 -112 0
FLAG -1072 80 0
FLAG -816 384 0
FLAG 448 816 0
FLAG -736 32 0
FLAG -192 544 0
FLAG -224 464 0
FLAG 1168 672 0
FLAG 528 144 0
FLAG 176 544 Vp
FLAG 704 448 Vp
FLAG 16 464 Vn
FLAG 704 544 Vn
FLAG 624 816 V_ctrl
FLAG -896 432 V_ctrl
FLAG 880 672 0
FLAG 528 256 Vdd
FLAG 592 368 Vdd
FLAG 464 368 Vdd
FLAG 816 432 Vdd
FLAG 464 624 0
FLAG 592 624 0
FLAG 1296 608 0
SYMBOL voltage -1344 64 R180
WINDOW 0 24 96 Left 2
WINDOW 3 24 16 Left 2
SYMATTR InstName V1
SYMATTR Value 5
SYMBOL res -1360 32 R0
SYMATTR InstName Rx1
SYMATTR Value 1
SYMBOL res -1360 144 R0
SYMATTR InstName Ry1
SYMATTR Value 1
SYMBOL res -1168 16 R90
WINDOW 0 0 56 VBottom 2
WINDOW 3 32 56 VTop 2
SYMATTR InstName R1
SYMATTR Value 2.5k
SYMBOL res -864 32 R90
WINDOW 0 0 56 VBottom 2
WINDOW 3 32 56 VTop 2
SYMATTR InstName R2
SYMATTR Value 1.5k
SYMBOL res -672 -48 R90
WINDOW 0 0 56 VBottom 2
WINDOW 3 32 56 VTop 2
SYMATTR InstName R3
SYMATTR Value 7.5k
SYMBOL cap -1104 -32 R270
WINDOW 0 32 32 VTop 2
WINDOW 3 0 32 VBottom 2
SYMATTR InstName C1
SYMATTR Value 4n
SYMBOL cap -1008 320 R90
WINDOW 0 0 32 VBottom 2
WINDOW 3 32 32 VTop 2
SYMATTR InstName C2
SYMATTR Value 1µ
SYMBOL voltage -976 -16 M180
WINDOW 0 24 96 Left 2
WINDOW 3 24 16 Left 2
SYMATTR InstName V2
SYMATTR Value 5
SYMBOL res -960 352 M0
SYMATTR InstName R_bias1
SYMATTR Value 1K
SYMBOL UniversalOpamp2 -736 64 M180
SYMATTR InstName CMP1
SYMBOL UniversalOpamp2 -816 352 R0
SYMATTR InstName CMP2
SYMBOL UniversalOpamp2 -1072 48 R0
SYMATTR InstName U1
SYMBOL voltage 592 816 R90
WINDOW 0 -32 56 VBottom 2
WINDOW 3 32 56 VTop 2
SYMATTR InstName V_PWM
SYMATTR Value 2.5
SYMBOL cap -160 448 R90
WINDOW 0 0 32 VBottom 2
WINDOW 3 32 32 VTop 2
SYMATTR InstName C3
SYMATTR Value 1n
SYMBOL cap -128 528 R90
WINDOW 0 0 32 VBottom 2
WINDOW 3 32 32 VTop 2
SYMATTR InstName C4
SYMATTR Value 5n
SYMBOL cap 1152 576 R0
SYMATTR InstName C5
SYMATTR Value 47µ
SYMBOL ind 976 544 R270
WINDOW 0 32 56 VTop 2
WINDOW 3 5 56 VBottom 2
SYMATTR InstName L1
SYMATTR Value 100µ
SYMBOL LTC1693-1 528 496 R0
SYMATTR InstName U2
SYMBOL voltage 528 240 R180
WINDOW 0 24 96 Left 2
WINDOW 3 24 16 Left 2
SYMATTR InstName V3
SYMATTR Value 5
SYMBOL NAND_2 0 400 R0
SYMATTR InstName U5
SYMBOL NAND_2 -48 704 R0
SYMATTR InstName U6
SYMBOL INV_1 16 544 R180
SYMATTR InstName U7
SYMBOL INV_1 112 544 R180
SYMATTR InstName U9
SYMBOL INV_1 -64 464 R180
SYMATTR InstName U10
SYMBOL INV_1 -288 464 R90
SYMATTR InstName U11
SYMBOL nmos 832 576 R0
SYMATTR InstName M1
SYMATTR Value BSZ100N06LS3
SYMBOL pmos 768 336 R0
SYMATTR InstName M2
SYMATTR Value RRS090P03
SYMBOL INV_1 192 704 R0
SYMATTR InstName U4
SYMBOL res 1280 512 R0
SYMATTR InstName R4
SYMATTR Value 50
TEXT 232 256 Left 2 !.tran 20m
